90
C
 C    0.000000    0.709014    0.000000
 C    0.000000    0.709014    6.696000
 C    0.000000    4.963014    0.000000
 C    0.000000    4.963014    6.696000
 C    2.456000    0.709014    0.000000
 C    2.456000    0.709014    6.696000
 C    2.456000    4.963014    0.000000
 C    2.456000    4.963014    6.696000
 C    4.912000    0.709014    0.000000
 C    4.912000    0.709014    6.696000
 C    4.912000    4.963014    0.000000
 C    4.912000    4.963014    6.696000
 C    0.000000    3.544986    0.000000
 C    0.000000    3.544986    6.696000
 C    0.000000    7.798986    0.000000
 C    0.000000    7.798986    6.696000
 C    2.456000    3.544986    0.000000
 C    2.456000    3.544986    6.696000
 C    2.456000    7.798986    0.000000
 C    2.456000    7.798986    6.696000
 C    4.912000    3.544986    0.000000
 C    4.912000    3.544986    6.696000
 C    4.912000    7.798986    0.000000
 C    4.912000    7.798986    6.696000
 C    0.000000    2.836014    3.348000
 C    0.000000    7.090014    3.348000
 C    2.456000    2.836014    3.348000
 C    2.456000    7.090014    3.348000
 C    4.912000    2.836014    3.348000
 C    4.912000    7.090014    3.348000
 C    0.000000    1.417986    3.348000
 C    0.000000    5.671986    3.348000
 C    2.456000    1.417986    3.348000
 C    2.456000    5.671986    3.348000
 C    4.912000    1.417986    3.348000
 C    4.912000    5.671986    3.348000
 C    1.228000    0.709014    3.348000
 C    1.228000    4.963014    3.348000
 C    3.684000    0.709014    3.348000
 C    3.684000    4.963014    3.348000
 C    1.228000    3.544986    3.348000
 C    1.228000    7.798986    3.348000
 C    3.684000    3.544986    3.348000
 C    3.684000    7.798986    3.348000
 C    1.228000    2.836014    0.000000
 C    1.228000    2.836014    6.696000
 C    1.228000    7.090014    0.000000
 C    1.228000    7.090014    6.696000
 C    3.684000    2.836014    0.000000
 C    3.684000    2.836014    6.696000
 C    3.684000    7.090014    0.000000
 C    3.684000    7.090014    6.696000
 C    1.228000    1.417986    0.000000
 C    1.228000    1.417986    6.696000
 C    1.228000    5.671986    0.000000
 C    1.228000    5.671986    6.696000
 C    3.684000    1.417986    0.000000
 C    3.684000    1.417986    6.696000
 C    3.684000    5.671986    0.000000
 C    3.684000    5.671986    6.696000
 C   -1.228000    1.417986    0.000000
 C   -0.000000   -0.709014    0.000000
 C   -1.228000    1.417986    6.696000
 C    0.000000   -0.709014    6.696000
 C   -1.228000    5.671986    0.000000
 C   -1.228000    5.671986    6.696000
 C    2.456000   -0.709014    0.000000
 C    2.456000   -0.709014    6.696000
 C    4.912000   -0.709014    0.000000
 C    6.140000    1.417986    0.000000
 C    4.912000   -0.709014    6.696000
 C    6.140000    1.417986    6.696000
 C    6.140000    5.671986    0.000000
 C    6.140000    5.671986    6.696000
 C   -1.228000    7.090014    0.000000
 C    0.000000    9.217015    0.000000
 C   -1.228000    7.090014    6.696000
 C    0.000000    9.217015    6.696000
 C    2.456000    9.217015    0.000000
 C    2.456000    9.217015    6.696000
 C    4.912000    9.217015    0.000000
 C    6.140000    7.090014    0.000000
 C    4.912000    9.217015    6.696000
 C    6.140000    7.090014    6.696000
 C   -1.228000    3.544986    3.348000
 C   -1.228000    7.798986    3.348000
 C    6.140000    3.544986    3.348000
 C    6.140000    7.798986    3.348000
 C    1.228000   -0.709014    3.348000
 C    3.684000   -0.709014    3.348000
